#RADIOSS STARTER
#---1----|----2----|----3----|----4----|----5----|----6----|----7----|----8----|----9----|---10----|
# Generated by crushsim - load case LC-1
# Deck syntax is generated from the OpenRadioss block-format reference and MUST be validated against the pinned starter before production use.
# Pinned solver tag: openradioss-test
# Unit system: mm-s-tonne-N-MPa (mass Mg, length mm, time s)
# golden snapshot
#---1----|----2----|----3----|----4----|----5----|----6----|----7----|----8----|----9----|---10----|
/BEGIN
lc1_golden
      2022         0
        Mg        mm         s
        Mg        mm         s
#---1----|----2----|----3----|----4----|----5----|----6----|----7----|----8----|----9----|---10----|
/NODE
#  node_ID                   X                   Y                   Z
# part: CAN
         1                  33                 -10                   0
         2                  33                   0                   0
         3                  33                  10                   0
         4                  33                 -10                  20
         5                  33                   0                  20
         6                  33                  10                  20
         7                  33                 -10                  40
         8                  33                   0                  40
         9                  33                  10                  40
# part: FLOOR
        10                 -50                 -50                   0
        11                   0                 -50                   0
        12                  50                 -50                   0
        13                 -50                   0                   0
        14                   0                   0                   0
        15                  50                   0                   0
        16                 -50                  50                   0
        17                   0                  50                   0
        18                  50                  50                   0
# part: REF_TOOL
        19                 -50                 -50                40.5
        20                   0                 -50                40.5
        21                  50                 -50                40.5
        22                 -50                   0                40.5
        23                   0                   0                40.5
        24                  50                   0                40.5
        25                 -50                  50                40.5
        26                   0                  50                40.5
        27                  50                  50                40.5
# FLOOR rigid-body master node
        28                   0                   0                   0
# REF_TOOL rigid-body master node
        29                   0                   0                40.5
#---1----|----2----|----3----|----4----|----5----|----6----|----7----|----8----|----9----|---10----|
/SHELL/1
CAN_QUADS
# shell_ID  node_ID1  node_ID2  node_ID3  node_ID4
         1         1         2         5         4
         2         2         3         6         5
         3         4         5         8         7
         4         5         6         9         8
#---1----|----2----|----3----|----4----|----5----|----6----|----7----|----8----|----9----|---10----|
/SHELL/2
FLOOR_QUADS
# shell_ID  node_ID1  node_ID2  node_ID3  node_ID4
         5        10        11        14        13
         6        11        12        15        14
         7        13        14        17        16
         8        14        15        18        17
#---1----|----2----|----3----|----4----|----5----|----6----|----7----|----8----|----9----|---10----|
/SHELL/3
REF_TOOL_QUADS
# shell_ID  node_ID1  node_ID2  node_ID3  node_ID4
         9        19        20        23        22
        10        20        21        24        23
        11        22        23        26        25
        12        23        24        27        26
#---1----|----2----|----3----|----4----|----5----|----6----|----7----|----8----|----9----|---10----|
/PART/1
CAN
#  prop_ID    mat_ID subset_ID
         1         1         0
#---1----|----2----|----3----|----4----|----5----|----6----|----7----|----8----|----9----|---10----|
/PROP/SHELL/1
CAN_SHELL
#   Ishell    Ismstr     ISH3N     Idril                                                   P_thickfail
        24         0         2         0
#                 hm                  hf                  hr                  dm                  dn
                   0                   0                   0                   0                   0
#        N   Istrain               Thick              Ashear    Ithick     Iplas
         5         1                 0.1              0.8333         1         1
#---1----|----2----|----3----|----4----|----5----|----6----|----7----|----8----|----9----|---10----|
/MAT/LAW2/1
Test Aluminium (test_al)
# harvested=test-fixture verified=false
#              RHO_I               RHO_O
            2.73e-09
#                  E                  NU
               69000                0.33
#                  a                   b                   n           EPS_p_max           SIG_max0
                 145               6.756                0.25                   0                   0
#                  c           EPS_DOT_0       ICC   Fsmooth               F_cut               Chard
                   0                   0         1         0                   0                   0
#---1----|----2----|----3----|----4----|----5----|----6----|----7----|----8----|----9----|---10----|
/PART/2
FLOOR
#  prop_ID    mat_ID subset_ID
         2         2         0
#---1----|----2----|----3----|----4----|----5----|----6----|----7----|----8----|----9----|---10----|
/PROP/SHELL/2
FLOOR_SHELL
#   Ishell    Ismstr     ISH3N     Idril                                                   P_thickfail
        24         0         2         0
#                 hm                  hf                  hr                  dm                  dn
                   0                   0                   0                   0                   0
#        N   Istrain               Thick              Ashear    Ithick     Iplas
         1         1                   2              0.8333         1         1
#---1----|----2----|----3----|----4----|----5----|----6----|----7----|----8----|----9----|---10----|
/MAT/LAW1/2
FLOOR_RIGID_ELASTIC
#              RHO_I               RHO_O
            7.85e-09
#                  E                  NU
              210000                 0.3
#---1----|----2----|----3----|----4----|----5----|----6----|----7----|----8----|----9----|---10----|
/PART/3
REF_TOOL
#  prop_ID    mat_ID subset_ID
         3         3         0
#---1----|----2----|----3----|----4----|----5----|----6----|----7----|----8----|----9----|---10----|
/PROP/SHELL/3
REF_TOOL_SHELL
#   Ishell    Ismstr     ISH3N     Idril                                                   P_thickfail
        24         0         2         0
#                 hm                  hf                  hr                  dm                  dn
                   0                   0                   0                   0                   0
#        N   Istrain               Thick              Ashear    Ithick     Iplas
         1         1                   2              0.8333         1         1
#---1----|----2----|----3----|----4----|----5----|----6----|----7----|----8----|----9----|---10----|
/MAT/LAW1/3
REF_TOOL_RIGID_ELASTIC
#              RHO_I               RHO_O
            7.85e-09
#                  E                  NU
              210000                 0.3
#---1----|----2----|----3----|----4----|----5----|----6----|----7----|----8----|----9----|---10----|
/GRNOD/PART/1
CAN_NODES
         1
/GRNOD/PART/2
FLOOR_NODES
         2
/GRNOD/PART/3
REF_TOOL_NODES
         3
#---1----|----2----|----3----|----4----|----5----|----6----|----7----|----8----|----9----|---10----|
/SURF/PART/1
ALL_CONTACT_SURFACES
         1         2         3
#---1----|----2----|----3----|----4----|----5----|----6----|----7----|----8----|----9----|---10----|
/GRNOD/PART/90
ALL_CONTACT_NODES
         1         2         3
#---1----|----2----|----3----|----4----|----5----|----6----|----7----|----8----|----9----|---10----|
/RBODY/1
FLOOR_RBODY
#  node_ID   sens_ID   skew_ID    Ispher                Mass   grnd_ID     Ikrem      ICoG   surf_ID
        28         0         0         0                   0         2         0         1         0
#                Jxx                 Jyy                 Jzz
                   0                   0                   0
#                Jxy                 Jyz                 Jxz
                   0                   0                   0
#---1----|----2----|----3----|----4----|----5----|----6----|----7----|----8----|----9----|---10----|
/RBODY/2
REF_TOOL_RBODY
#  node_ID   sens_ID   skew_ID    Ispher                Mass   grnd_ID     Ikrem      ICoG   surf_ID
        29         0         0         0                   0         3         0         1         0
#                Jxx                 Jyy                 Jzz
                   0                   0                   0
#                Jxy                 Jyz                 Jxz
                   0                   0                   0
#---1----|----2----|----3----|----4----|----5----|----6----|----7----|----8----|----9----|---10----|
/GRNOD/NODE/81
FLOOR_MASTER
        28
/BCS/1
FLOOR_FIXED_Z0
#  Tra rot   skew_ID  grnod_ID
   111 111         0        81
#---1----|----2----|----3----|----4----|----5----|----6----|----7----|----8----|----9----|---10----|
/GRNOD/NODE/95
REF_TOOL_MASTER
        29
/BCS/2
REF_TOOL_GUIDE
#  Tra rot   skew_ID  grnod_ID
   110 111         0        95
#---1----|----2----|----3----|----4----|----5----|----6----|----7----|----8----|----9----|---10----|
/FUNCT/1
REF_TOOL_DISPLACEMENT_RAMP
#                  X                   Y
                   0                   0
       0.00105263158         0.382505503
       0.00210526316          2.10526316
       0.00315789474          4.21052632
       0.00421052632          6.31578947
       0.00526315789          8.42105263
       0.00631578947          10.5263158
       0.00736842105          12.6315789
       0.00842105263          14.7368421
       0.00947368421          16.8421053
        0.0105263158          18.9473684
        0.0115789474          21.0526316
        0.0126315789          23.1578947
        0.0136842105          25.2631579
        0.0147368421          27.3684211
        0.0157894737          29.4736842
        0.0168421053          31.5789474
        0.0178947368          33.6842105
        0.0189473684          35.7894737
                0.02          37.8947368
        0.0210526316                  40
#---1----|----2----|----3----|----4----|----5----|----6----|----7----|----8----|----9----|---10----|
/IMPDISP/1
REF_TOOL_IMPOSED_DISPLACEMENT
# funct_ID       DIR   skew_ID sensor_ID   grnd_ID  frame_ID     Icoor
         1         Z         0         0        95         0         0
#           Ascale_x            Fscale_Y              TSTART               TSTOP
                   0                  -1                   0        0.0210526316
#---1----|----2----|----3----|----4----|----5----|----6----|----7----|----8----|----9----|---10----|
/INTER/TYPE7/1
GLOBAL_SELF_CONTACT
# grnd_IDs  surf_IDm      Istf      Ithe      Igap                Ibag      Idel
        90         1         4         0         2         0         0         0
#          Fscalegap             Gap_max             Fpenmax
                 0.8                   0                   0
#              Stmin               Stmax          %mesh_size               dtmin
                   0                   0                   0                   0
#              Stfac                Fric              Gapmin              Tstart               Tstop
                   1                0.15                   0                   0                   0
#      IBC                                Inacti                VISs                VISF              Bumult
         0         0         0                   0                   0                   0
#---1----|----2----|----3----|----4----|----5----|----6----|----7----|----8----|----9----|---10----|
/TH/RBODY/1
RBODY_REACTIONS
#  var1      var2      var3      var4      var5
DEF       FX        FY        FZ        DX        DY        DZ
#   obj_ID  obj_name
         1  FLOOR_RBODY
#   obj_ID  obj_name
         2  REF_TOOL_RBODY
#---1----|----2----|----3----|----4----|----5----|----6----|----7----|----8----|----9----|---10----|
/TH/PART/2
PART_ENERGIES
#  var1      var2      var3
DEF       IE        KE
         1  CAN
         2  FLOOR
         3  REF_TOOL
#---1----|----2----|----3----|----4----|----5----|----6----|----7----|----8----|----9----|---10----|
/END
