#RADIOSS STARTER
#---1----|----2----|----3----|----4----|----5----|----6----|----7----|----8----|----9----|---10----|
# Generated by crushsim - load case LC-2
# Deck syntax is generated from the OpenRadioss block-format reference and MUST be validated against the pinned starter before production use.
# Pinned solver tag: openradioss-test
# Unit system: mm-s-tonne-N-MPa (mass Mg, length mm, time s)
# golden snapshot
#---1----|----2----|----3----|----4----|----5----|----6----|----7----|----8----|----9----|---10----|
/BEGIN
lc2_golden
      2022
                  Mg                  mm                   s
                  Mg                  mm                   s
#---1----|----2----|----3----|----4----|----5----|----6----|----7----|----8----|----9----|---10----|
/NODE
#  node_ID                   X                   Y                   Z
# part: CAN
         1                  33                 -10                   0
         2                  33                   0                   0
         3                  33                  10                   0
         4                  33                 -10                  20
         5                  33                   0                  20
         6                  33                  10                  20
         7                  33                 -10                  40
         8                  33                   0                  40
         9                  33                  10                  40
# part: FLOOR
        10                 -50                 -50                   0
        11                   0                 -50                   0
        12                  50                 -50                   0
        13                 -50                   0                   0
        14                   0                   0                   0
        15                  50                   0                   0
        16                 -50                  50                   0
        17                   0                  50                   0
        18                  50                  50                   0
# part: REF_TOOL
        19               -33.5                 -50                   0
        20               -33.5                   0                   0
        21               -33.5                  50                   0
        22               -33.5                 -50                  20
        23               -33.5                   0                  20
        24               -33.5                  50                  20
        25               -33.5                 -50                  40
        26               -33.5                   0                  40
        27               -33.5                  50                  40
# FLOOR rigid-body master node
        28                   0                   0                   0
# REF_TOOL rigid-body master node
        29               -33.5                   0                  20
#---1----|----2----|----3----|----4----|----5----|----6----|----7----|----8----|----9----|---10----|
/SHELL/1
# shell_ID  node_ID1  node_ID2  node_ID3  node_ID4
         1         1         2         5         4
         2         2         3         6         5
         3         4         5         8         7
         4         5         6         9         8
#---1----|----2----|----3----|----4----|----5----|----6----|----7----|----8----|----9----|---10----|
/SHELL/2
# shell_ID  node_ID1  node_ID2  node_ID3  node_ID4
         5        10        11        14        13
         6        11        12        15        14
         7        13        14        17        16
         8        14        15        18        17
#---1----|----2----|----3----|----4----|----5----|----6----|----7----|----8----|----9----|---10----|
/SHELL/3
# shell_ID  node_ID1  node_ID2  node_ID3  node_ID4
         9        19        20        23        22
        10        20        21        24        23
        11        22        23        26        25
        12        23        24        27        26
#---1----|----2----|----3----|----4----|----5----|----6----|----7----|----8----|----9----|---10----|
/PART/1
CAN
#  prop_ID    mat_ID subset_ID
         1         1         0
#---1----|----2----|----3----|----4----|----5----|----6----|----7----|----8----|----9----|---10----|
/PROP/SHELL/1
CAN_SHELL
#   Ishell    Ismstr     ISH3N     Idril                                                   P_thickfail
        24         0         2         0
#                 hm                  hf                  hr                  dm                  dn
                   0                   0                   0                   0                   0
#        N   Istrain               Thick              Ashear              Ithick     Iplas
         5         1                 0.1              0.8333                   1         1
#---1----|----2----|----3----|----4----|----5----|----6----|----7----|----8----|----9----|---10----|
/MAT/LAW2/1
Test Aluminium (test_al)
# harvested=test-fixture verified=false
#              RHO_I               RHO_O
            2.73e-09
#                  E                  NU
               69000                0.33
#                  a                   b                   n           EPS_p_max           SIG_max0
                 145               6.756                0.25                   0                   0
#                  c           EPS_DOT_0       ICC   Fsmooth               F_cut               Chard
                   0                   0         1         0                   0                   0
#                  m              T_melt              rhoC_p                 T_r
                   0                   0                   0                   0
#---1----|----2----|----3----|----4----|----5----|----6----|----7----|----8----|----9----|---10----|
/PART/2
FLOOR
#  prop_ID    mat_ID subset_ID
         2         2         0
#---1----|----2----|----3----|----4----|----5----|----6----|----7----|----8----|----9----|---10----|
/PROP/SHELL/2
FLOOR_SHELL
#   Ishell    Ismstr     ISH3N     Idril                                                   P_thickfail
        24         0         2         0
#                 hm                  hf                  hr                  dm                  dn
                   0                   0                   0                   0                   0
#        N   Istrain               Thick              Ashear              Ithick     Iplas
         1         1                   2              0.8333                   1         1
#---1----|----2----|----3----|----4----|----5----|----6----|----7----|----8----|----9----|---10----|
/MAT/LAW1/2
FLOOR_RIGID_ELASTIC
#              RHO_I               RHO_O
            7.85e-09
#                  E                  NU
              210000                 0.3
#---1----|----2----|----3----|----4----|----5----|----6----|----7----|----8----|----9----|---10----|
/PART/3
REF_TOOL
#  prop_ID    mat_ID subset_ID
         3         3         0
#---1----|----2----|----3----|----4----|----5----|----6----|----7----|----8----|----9----|---10----|
/PROP/SHELL/3
REF_TOOL_SHELL
#   Ishell    Ismstr     ISH3N     Idril                                                   P_thickfail
        24         0         2         0
#                 hm                  hf                  hr                  dm                  dn
                   0                   0                   0                   0                   0
#        N   Istrain               Thick              Ashear              Ithick     Iplas
         1         1                   2              0.8333                   1         1
#---1----|----2----|----3----|----4----|----5----|----6----|----7----|----8----|----9----|---10----|
/MAT/LAW1/3
REF_TOOL_RIGID_ELASTIC
#              RHO_I               RHO_O
            7.85e-09
#                  E                  NU
              210000                 0.3
#---1----|----2----|----3----|----4----|----5----|----6----|----7----|----8----|----9----|---10----|
/GRNOD/PART/1
CAN_NODES
         1
/GRNOD/PART/2
FLOOR_NODES
         2
/GRNOD/PART/3
REF_TOOL_NODES
         3
#---1----|----2----|----3----|----4----|----5----|----6----|----7----|----8----|----9----|---10----|
/SURF/PART/1
ALL_CONTACT_SURFACES
         1         2         3
#---1----|----2----|----3----|----4----|----5----|----6----|----7----|----8----|----9----|---10----|
/GRNOD/PART/90
CONTACT_SECONDARY_NODES
         1
#---1----|----2----|----3----|----4----|----5----|----6----|----7----|----8----|----9----|---10----|
/RBODY/1
FLOOR_RBODY
#  node_ID   sens_ID   skew_ID    Ispher                Mass   grnd_ID     Ikrem      ICoG   surf_ID
        28         0         0         0                   0         2         0         1         0
#                Jxx                 Jyy                 Jzz
                   0                   0                   0
#                Jxy                 Jyz                 Jxz
                   0                   0                   0
#  Ioptoff   Iexpams     Ifail
         0         0         0
#---1----|----2----|----3----|----4----|----5----|----6----|----7----|----8----|----9----|---10----|
/RBODY/2
REF_TOOL_RBODY
#  node_ID   sens_ID   skew_ID    Ispher                Mass   grnd_ID     Ikrem      ICoG   surf_ID
        29         0         0         0                   0         3         0         1         0
#                Jxx                 Jyy                 Jzz
                   0                   0                   0
#                Jxy                 Jyz                 Jxz
                   0                   0                   0
#  Ioptoff   Iexpams     Ifail
         0         0         0
#---1----|----2----|----3----|----4----|----5----|----6----|----7----|----8----|----9----|---10----|
/GRNOD/NODE/81
FLOOR_MASTER
        28
/BCS/1
FLOOR_FIXED
#  Tra rot   skew_ID  grnod_ID
   111 111         0        81
#---1----|----2----|----3----|----4----|----5----|----6----|----7----|----8----|----9----|---10----|
/GRNOD/NODE/95
REF_TOOL_MASTER
        29
/BCS/2
REF_TOOL_GUIDE
#  Tra rot   skew_ID  grnod_ID
   011 111         0        95
#---1----|----2----|----3----|----4----|----5----|----6----|----7----|----8----|----9----|---10----|
/FUNCT/1
REF_TOOL_VELOCITY_RAMP
#                  X                   Y
                   0                   0
      5.26315789e-05          12.3116594
      0.000105263158          48.9434837
      0.000157894737          108.993476
      0.000210526316          190.983006
      0.000263157895          292.893219
      0.000315789474          412.214748
      0.000368421053            546.0095
      0.000421052632          690.983006
      0.000473684211          843.565535
      0.000526315789                1000
      0.000578947368          1156.43447
      0.000631578947          1309.01699
      0.000684210526           1453.9905
      0.000736842105          1587.78525
      0.000789473684          1707.10678
      0.000842105263          1809.01699
      0.000894736842          1891.00652
      0.000947368421          1951.05652
               0.001          1987.68834
# ... 181 like lines cut
#---1----|----2----|----3----|----4----|----5----|----6----|----7----|----8----|----9----|---10----|
/IMPVEL/1
REF_TOOL_IMPOSED_VELOCITY
#funct_IDT       Dir   skew_ID sensor_ID  grnod_ID  frame_ID
         1         X         0         0        95         0
#            Scale_x             Scale_y              Tstart               Tstop
                   0                   1                   0        0.0105263158
#---1----|----2----|----3----|----4----|----5----|----6----|----7----|----8----|----9----|---10----|
/INTER/TYPE7/1
GLOBAL_SELF_CONTACT
# grnod_id   surf_id      Istf      Ithe      Igap                Ibag      Idel     Icurv      Iadm
        90         1         4         0         2                   0         0         0         0
#          Fscalegap             Gap_max             Fpenmax
                 0.8                   0                   0
#              Stmin               Stmax   Percent_mesh_size               dtmin  Irem_gap   Irem_i2
                   0                   0                   0                   0         0         0
#              Stfac                Fric              GAPmin              Tstart               Tstop
                   1                0.15                   0                   0                   0
#      IBC                        Inacti               VIS_S               VIS_F              Bumult
       000                             6                   0                   0                   0
#    Ifric    Ifiltr               Xfreq     Iform   sens_ID   fct_IDF             AscaleF   fric_ID
         0         0                   0         0         0         0                   0         0
#---1----|----2----|----3----|----4----|----5----|----6----|----7----|----8----|----9----|---10----|
/TH/RBODY/1
RBODY_REACTIONS
#      var       var       var       var
DEF       FX        FY        FZ
#      Obj       Obj
         1         2
#---1----|----2----|----3----|----4----|----5----|----6----|----7----|----8----|----9----|---10----|
/TH/NODE/3
RBODY_MASTER_DISPLACEMENTS
#      var       var       var       var
DEF       DX        DY        DZ
#  node_ID   skew_ID node_name
        28         0FLOOR_MASTER
        29         0REF_TOOL_MASTER
#---1----|----2----|----3----|----4----|----5----|----6----|----7----|----8----|----9----|---10----|
/TH/PART/2
PART_ENERGIES
#      var       var       var
DEF       IE        KE
#      Obj       Obj       Obj
         1         2         3
#---1----|----2----|----3----|----4----|----5----|----6----|----7----|----8----|----9----|---10----|
/END
